#	Name: V46
#	Creating user name:	bogdan
#	Creation time:	14. 02. 2016 14:30

#	Modifying user name:	bogdan
#	Modification time:	14. 02. 2016 14:30

#	Program:	corina 3.60 0028  24.02.2015

@<TRIPOS>MOLECULE
V46
  17   17    0    0    0
SMALL
NO_CHARGES


@<TRIPOS>ATOM
   1 C1             0.0588     1.4587     0.2437 C.ar    
   2 C2             1.2616     2.0839    -0.0262 C.ar    
   3 C3             2.3926     1.3287    -0.2752 C.ar    
   4 C4             2.3207    -0.0514    -0.2538 C.ar    
   5 C5             1.1177    -0.6768     0.0171 C.ar    
   6 C6            -0.0133     0.0782     0.2646 C.ar    
   7 C7             1.3400     3.5886    -0.0495 C.3     
   8 N8            -1.1507     2.2672     0.5163 N.pl3   
   9 O9            -1.0589     3.3091     1.1404 O.2     
  10 O10           -2.2378     1.8905     0.1166 O.2     
  11 H11            3.3323     1.8172    -0.4868 H       
  12 H12            3.2040    -0.6413    -0.4490 H       
  13 H13            1.0613    -1.7552     0.0331 H       
  14 H14           -0.9529    -0.4104     0.4766 H       
  15 H15            1.4814     3.9609     0.9651 H       
  16 H16            2.1802     3.8991    -0.6708 H       
  17 H17            0.4153     3.9944    -0.4598 H       
@<TRIPOS>BOND
   1    1    6 ar
   2    1    2 ar
   3    1    8 1
   4    2    3 ar
   5    2    7 1
   6    3    4 ar
   7    3   11 1
   8    4    5 ar
   9    4   12 1
  10    5    6 ar
  11    5   13 1
  12    6   14 1
  13    7   15 1
  14    7   16 1
  15    7   17 1
  16    8    9 2
  17    8   10 2

#	End of record

